Pcp_File_Version=4
*** BLOCK I: ATMOSPHERIC INFORMATION  **********************************
   MaxAL                    (MaxAL = number of atmospheric data-records)
    273
 DailyVar  SinusVar  lLay  lBCCycles lInterc lDummy  lDummy  lDummy  lDummy  lDummy
       f       f       t       f       f       f       f       f       f       f
 Extinction
   0.463
 hCritS                 (max. allowed pressure head at the soil surface)
      2
       tAtm        Prec       rSoil       rRoot      hCritA          rB          hB          ht    RootDepth
1 0 0 2 1000000.0 0 0 0 
2 0 0.0145769 2 1000000.0 0 0 0 
3 0 0 2 1000000.0 0 0 0 
4 0.01 0.0708825 2 1000000.0 0 0 0 
5 0.85 0 2 1000000.0 0 0 0 
6 0 0 2 1000000.0 0 0 0 
7 0 0 2 1000000.0 0 0 0 
8 0 0 2 1000000.0 0 0 0 
9 0.45 0 2 1000000.0 0 0 0 
10 0.05 0 2 1000000.0 0 0 0 
11 0.33 0.0115429 2 1000000.0 0 0 0 
12 0 0 2 1000000.0 0 0 0 
13 0 0 2 1000000.0 0 0 0 
14 0.7 0 2 1000000.0 0 0 0 
15 0.04 0 2 1000000.0 0 0 0 
16 0 0 2 1000000.0 0 0 0 
17 0 0.0348851 2 1000000.0 0 0 0 
18 0 0 2 1000000.0 0 0 0 
19 0 0 2 1000000.0 0 0 0 
20 0.88 0 2 1000000.0 0 0 0 
21 0.23 0 2 1000000.0 0 0 0 
22 0 0.0423093 2 1000000.0 0 0 0 
23 0.05 0 2 1000000.0 0 0 0 
24 1.45 0.054135 2 1000000.0 0 0 0 
25 0.67 0.00183514 2 1000000.0 0 0 0 
26 0.38 0 2 1000000.0 0 0 0 
27 0.46 0 2 1000000.0 0 0 0 
28 0 0.037881 2 1000000.0 0 0 0 
29 0 0 2 1000000.0 0 0 0 
30 0 0 2 1000000.0 0 0 0 
31 0 0.0408296 2 1000000.0 0 0 0 
32 0 0 2 1000000.0 0 0 0 
33 0.13 0 2 1000000.0 0 0 0 
34 0 0 2 1000000.0 0 0 0 
35 0 0 2 1000000.0 0 0 0 
36 0.1 0 2 1000000.0 0 0 0 
37 0 0 2 1000000.0 0 0 0 
38 0.78 0 2 1000000.0 0 0 0 
39 0.21 0 2 1000000.0 0 0 0 
40 0.38 0 2 1000000.0 0 0 0 
41 0.45 0 2 1000000.0 0 0 0 
42 0.06 0 2 1000000.0 0 0 0 
43 0 0.0181584 2 1000000.0 0 0 0 
44 0.2 0 2 1000000.0 0 0 0 
45 0 0.00781914 2 1000000.0 0 0 0 
46 0.09 0 2 1000000.0 0 0 0 
47 0.69 0.0139533 2 1000000.0 0 0 0 
48 0.09 0 2 1000000.0 0 0 0 
49 0 0.0550824 2 1000000.0 0 0 0 
50 0.5 0.016285 2 1000000.0 0 0 0 
51 0 0.0773624 2 1000000.0 0 0 0 
52 0.68 0 2 1000000.0 0 0 0 
53 0.2 0 2 1000000.0 0 0 0 
54 0 0.0452638 2 1000000.0 0 0 0 
55 0 0.10025 2 1000000.0 0 0 0 
56 0 0.0651126 2 1000000.0 0 0 0 
57 0 0.161445 2 1000000.0 0 0 0 
58 0.07 0.115281 2 1000000.0 0 0 0 
59 0 0.114365 2 1000000.0 0 0 0 
60 0 0.111684 2 1000000.0 0 0 0 
61 0 0 2 1000000.0 0 0 0 
62 0.05 0.0850549 2 1000000.0 0 0 0 
63 0.83 0.037833 2 1000000.0 0 0 0 
64 1.71 0 2 1000000.0 0 0 0 
65 0.07 0.0569569 2 1000000.0 0 0 0 
66 0 0.153522 2 1000000.0 0 0 0 
67 0 0.174512 2 1000000.0 0 0 0 
68 0 0.137521 2 1000000.0 0 0 0 
69 0 0.120537 2 1000000.0 0 0 0 
70 0 0.196504 2 1000000.0 0 0 0 
71 0 0.217552 2 1000000.0 0 0 0 
72 0 0.296335 2 1000000.0 0 0 0 
73 0 0.307584 2 1000000.0 0 0 0 
74 1.05 0 2 1000000.0 0 0 0 
75 0.04 0.0921587 2 1000000.0 0 0 0 
76 0 0.130348 2 1000000.0 0 0 0 
77 0.04 0.216857 2 1000000.0 0 0 0 
78 0 0.105468 2 1000000.0 0 0 0 
79 0 0.337555 2 1000000.0 0 0 0 
80 0 0.314548 2 1000000.0 0 0 0 
81 1 0.201561 2 1000000.0 0 0 0 
82 3.38 0 2 1000000.0 0 0 0 
83 0.38 0.117376 2 1000000.0 0 0 0 
84 0 0.0716101 2 1000000.0 0 0 0 
85 0 0.157986 2 1000000.0 0 0 0 
86 0 0.207407 2 1000000.0 0 0 0 
87 0 0.300472 2 1000000.0 0 0 0 
88 0 0.297592 2 1000000.0 0 0 0 
89 0 0.406856 2 1000000.0 0 0 0 
90 0 0.356508 2 1000000.0 0 0 0 
91 0 0.364431 2 1000000.0 0 0 0 
92 0 0.262278 2 1000000.0 0 0 0 
93 0 0.363941 2 1000000.0 0 0 0 
94 0 0.276722 2 1000000.0 0 0 0 
95 2.57 0.199832 2 1000000.0 0 0 0 
96 1.36 0 2 1000000.0 0 0 0 
97 0 0.492043 2 1000000.0 0 0 0 
98 1.61 0.0406821 2 1000000.0 0 0 0 
99 0.73 0.176919 2 1000000.0 0 0 0 
100 0.48 0.133441 2 1000000.0 0 0 0 
101 0 0.173251 2 1000000.0 0 0 0 
102 0.34 0.354575 2 1000000.0 0 0 0 
103 0.11 0.106229 2 1000000.0 0 0 0 
104 0.86 0.107466 2 1000000.0 0 0 0 
105 0.05 0.0871616 2 1000000.0 0 0 0 
106 0.02 0.217737 2 1000000.0 0 0 0 
107 0 0.361423 2 1000000.0 0 0 0 
108 0.66 0.0380251 2 1000000.0 0 0 0 
109 0.19 0.383211 2 1000000.0 0 0 0 
110 0 0.347793 2 1000000.0 0 0 0 
111 0 0.422271 2 1000000.0 0 0 0 
112 0.01 0.309851 2 1000000.0 0 0 0 
113 0.01 0.244378 2 1000000.0 0 0 0 
114 0 0.428305 2 1000000.0 0 0 0 
115 0 0.537421 2 1000000.0 0 0 0 
116 0 0.438277 2 1000000.0 0 0 0 
117 0.4 0.0126586 2 1000000.0 0 0 0 
118 0.03 0.220536 2 1000000.0 0 0 0 
119 0.67 0.0373594 2 1000000.0 0 0 0 
120 0 0.455087 2 1000000.0 0 0 0 
121 0 0.388888 2 1000000.0 0 0 0 
122 0.53 0.306378 2 1000000.0 0 0 0 
123 1.88 0.0438261 2 1000000.0 0 0 0 
124 0 0.299398 2 1000000.0 0 0 0 
125 0 0.365284 2 1000000.0 0 0 0 
126 0 0.628542 2 1000000.0 0 0 0 
127 0.84 0.107034 2 1000000.0 0 0 0 
128 0.28 0.331886 2 1000000.0 0 0 0 
129 0.62 0.276385 2 1000000.0 0 0 0 
130 0.9 0.461559 2 1000000.0 0 0 0 
131 1.02 0 2 1000000.0 0 0 0 
132 0.81 0.288392 2 1000000.0 0 0 0 
133 1.49 0.253062 2 1000000.0 0 0 0 
134 0.54 0.267578 2 1000000.0 0 0 0 
135 0.54 0.235704 2 1000000.0 0 0 0 
136 1.92 0.0127617 2 1000000.0 0 0 0 
137 2.35 0.00577859 2 1000000.0 0 0 0 
138 0 0.219923 2 1000000.0 0 0 0 
139 0 0.587517 2 1000000.0 0 0 0 
140 0 0.662982 2 1000000.0 0 0 0 
141 0 0.747705 2 1000000.0 0 0 0 
142 0 0.803651 2 1000000.0 0 0 0 
143 0 0.490712 2 1000000.0 0 0 0 
144 0 0.512234 2 1000000.0 0 0 0 
145 0.1 0.60151 2 1000000.0 0 0 0 
146 1.74 0.628282 2 1000000.0 0 0 0 
147 6.46 0.168473 2 1000000.0 0 0 0 
148 1.63 0.0162701 2 1000000.0 0 0 0 
149 2.59 0.117768 2 1000000.0 0 0 0 
150 0.11 0.173986 2 1000000.0 0 0 0 
151 0.26 0.449521 2 1000000.0 0 0 0 
152 0.04 0.414222 2 1000000.0 0 0 0 
153 0.01 0.454079 2 1000000.0 0 0 0 
154 0.17 0.660998 2 1000000.0 0 0 0 
155 1.37 0.615784 2 1000000.0 0 0 0 
156 0 0.352075 2 1000000.0 0 0 0 
157 0 0.696478 2 1000000.0 0 0 0 
158 0 0.845696 2 1000000.0 0 0 0 
159 0 0.967028 2 1000000.0 0 0 0 
160 0 0.996441 2 1000000.0 0 0 0 
161 0 0.92155 2 1000000.0 0 0 0 
162 0 1.01324 2 1000000.0 0 0 0 
163 0 0.747938 2 1000000.0 0 0 0 
164 0.02 0.519308 2 1000000.0 0 0 0 
165 0.38 0.283507 2 1000000.0 0 0 0 
166 0 0.587411 2 1000000.0 0 0 0 
167 0 0.625026 2 1000000.0 0 0 0 
168 0 0.400017 2 1000000.0 0 0 0 
169 0 0.658361 2 1000000.0 0 0 0 
170 0.26 0.705374 2 1000000.0 0 0 0 
171 0.94 0.04656 2 1000000.0 0 0 0 
172 0 0.542845 2 1000000.0 0 0 0 
173 0 0.854692 2 1000000.0 0 0 0 
174 0.71 0.706709 2 1000000.0 0 0 0 
175 0.26 0.336059 2 1000000.0 0 0 0 
176 0.35 0.47877 2 1000000.0 0 0 0 
177 0 0.77455 2 1000000.0 0 0 0 
178 0.06 0.680213 2 1000000.0 0 0 0 
179 0.79 0.620304 2 1000000.0 0 0 0 
180 2.31 0.0531688 2 1000000.0 0 0 0 
181 1.04 0.193932 2 1000000.0 0 0 0 
182 0.13 0.665125 2 1000000.0 0 0 0 
183 0.95 0.150731 2 1000000.0 0 0 0 
184 0 0.673076 2 1000000.0 0 0 0 
185 0.22 0.757843 2 1000000.0 0 0 0 
186 0.27 0.562813 2 1000000.0 0 0 0 
187 0 0.784597 2 1000000.0 0 0 0 
188 0.46 0.568864 2 1000000.0 0 0 0 
189 3.1 0.201796 2 1000000.0 0 0 0 
190 0.43 0.166496 2 1000000.0 0 0 0 
191 1.37 0.352721 2 1000000.0 0 0 0 
192 0.5 0.325835 2 1000000.0 0 0 0 
193 0.22 0.426307 2 1000000.0 0 0 0 
194 0.22 0.632557 2 1000000.0 0 0 0 
195 0.76 0.477722 2 1000000.0 0 0 0 
196 0 0.60572 2 1000000.0 0 0 0 
197 0 0.744455 2 1000000.0 0 0 0 
198 0.67 0.731144 2 1000000.0 0 0 0 
199 0 0.892932 2 1000000.0 0 0 0 
200 0 0.853181 2 1000000.0 0 0 0 
201 0.8 0.649795 2 1000000.0 0 0 0 
202 1.44 0.0686498 2 1000000.0 0 0 0 
203 0.79 0.0278704 2 1000000.0 0 0 0 
204 0.75 0.591883 2 1000000.0 0 0 0 
205 0 0.592469 2 1000000.0 0 0 0 
206 0 0.721749 2 1000000.0 0 0 0 
207 0.01 0.676367 2 1000000.0 0 0 0 
208 0.12 0.452763 2 1000000.0 0 0 0 
209 0.02 0.559638 2 1000000.0 0 0 0 
210 3.83 0.381733 2 1000000.0 0 0 0 
211 5.27 0.208777 2 1000000.0 0 0 0 
212 1.99 0.0436449 2 1000000.0 0 0 0 
213 0 0.730178 2 1000000.0 0 0 0 
214 1.04 0.622091 2 1000000.0 0 0 0 
215 8.07 0.712206 2 1000000.0 0 0 0 
216 0.75 0.72599 2 1000000.0 0 0 0 
217 1.79 0.226505 2 1000000.0 0 0 0 
218 0 0.548061 2 1000000.0 0 0 0 
219 0.01 0.352683 2 1000000.0 0 0 0 
220 0 0.64489 2 1000000.0 0 0 0 
221 0.05 0.468679 2 1000000.0 0 0 0 
222 0 0.607372 2 1000000.0 0 0 0 
223 1.96 0.127562 2 1000000.0 0 0 0 
224 0.68 0.182045 2 1000000.0 0 0 0 
225 0.96 0 2 1000000.0 0 0 0 
226 0 0.228714 2 1000000.0 0 0 0 
227 0.22 0.202511 2 1000000.0 0 0 0 
228 0.34 0.23406 2 1000000.0 0 0 0 
229 0 0.582035 2 1000000.0 0 0 0 
230 0.19 0.645177 2 1000000.0 0 0 0 
231 0.14 0.375024 2 1000000.0 0 0 0 
232 0.69 0.257965 2 1000000.0 0 0 0 
233 0.08 0.401462 2 1000000.0 0 0 0 
234 0.14 0.393178 2 1000000.0 0 0 0 
235 0.88 0.0628228 2 1000000.0 0 0 0 
236 0.31 0.254319 2 1000000.0 0 0 0 
237 0.12 0.584286 2 1000000.0 0 0 0 
238 0.38 0.0657142 2 1000000.0 0 0 0 
239 1.46 0.200841 2 1000000.0 0 0 0 
240 0 0.569924 2 1000000.0 0 0 0 
241 1.86 0.414364 2 1000000.0 0 0 0 
242 1.49 0.0145199 2 1000000.0 0 0 0 
243 2.58 0.149765 2 1000000.0 0 0 0 
244 2.18 0.0583665 2 1000000.0 0 0 0 
245 1.42 0.113393 2 1000000.0 0 0 0 
246 0 0.33013 2 1000000.0 0 0 0 
247 0 0.572252 2 1000000.0 0 0 0 
248 0 0.374061 2 1000000.0 0 0 0 
249 0.02 0.455389 2 1000000.0 0 0 0 
250 0 0.473582 2 1000000.0 0 0 0 
251 0.01 0.622003 2 1000000.0 0 0 0 
252 2.42 0.337681 2 1000000.0 0 0 0 
253 0.05 0.224554 2 1000000.0 0 0 0 
254 1.02 0.0832488 2 1000000.0 0 0 0 
255 0.22 0.0779924 2 1000000.0 0 0 0 
256 3.7 0.0484033 2 1000000.0 0 0 0 
257 1.16 0.0313119 2 1000000.0 0 0 0 
258 0 0.499232 2 1000000.0 0 0 0 
259 0 0.246048 2 1000000.0 0 0 0 
260 0 0.353772 2 1000000.0 0 0 0 
261 0 0.271308 2 1000000.0 0 0 0 
262 0 0.413448 2 1000000.0 0 0 0 
263 1.89 0.323684 2 1000000.0 0 0 0 
264 1.45 0.145681 2 1000000.0 0 0 0 
265 0.77 0.101439 2 1000000.0 0 0 0 
266 0 0.221597 2 1000000.0 0 0 0 
267 1.04 0.37419 2 1000000.0 0 0 0 
268 0.17 0.0713835 2 1000000.0 0 0 0 
269 0.06 0.0775251 2 1000000.0 0 0 0 
270 0 0.352135 2 1000000.0 0 0 0 
271 0 0.413358 2 1000000.0 0 0 0 
272 0 0.313879 2 1000000.0 0 0 0 
273 1.2 0.35507 2 1000000.0 0 0 0 
end*** END OF INPUT 1000000.0 'ATMOSPH.IN' ********************************** 
