Pcp_File_Version=4
      1
Welcome to HYDRUS-1D
  
   NOBB     MIT iWeight
    366       0       0
  lWatF  lChemF    NMat   lTempF
      t       f       1       f
  Model   Hysteresis
      0       0
    thr     ths    Alfa       n         Ks       l
  0.032    0.39   0.033    1.45      98.71     0.5 
      1       1       1       1          1       0 
      0     0.3   0.001     1.1         10       0 
    0.1     0.5     0.1     2.5        500       0 
      HO(N)         FOS   ITYPE(N) POS     WTS
          91      0.26475     2     0        1 
          92     0.263836     2     0        1 
          93     0.260622     2     0        1 
          94     0.259363     2     0        1 
          95     0.274543     2     0        1 
          96      0.28396     2     0        1 
          97     0.280477     2     0        1 
          98     0.292213     2     0        1 
          99     0.292787     2     0        1 
         100     0.292829     2     0        1 
         101     0.289976     2     0        1 
         102     0.283532     2     0        1 
         103      0.28101     2     0        1 
         104     0.286156     2     0        1 
         105     0.281987     2     0        1 
         106     0.282204     2     0        1 
         107     0.276146     2     0        1 
         108     0.278559     2     0        1 
         109     0.278803     2     0        1 
         110     0.275027     2     0        1 
         111     0.271908     2     0        1 
         112     0.268053     2     0        1 
         113     0.264032     2     0        1 
         114     0.264443     2     0        1 
         115     0.259032     2     0        1 
         116     0.257722     2     0        1 
         117     0.260447     2     0        1 
         118     0.258192     2     0        1 
         119     0.263181     2     0        1 
         120     0.260789     2     0        1 
         121     0.257563     2     0        1 
         122     0.257581     2     0        1 
         123     0.271218     2     0        1 
         124     0.270393     2     0        1 
         125     0.266025     2     0        1 
         126      0.26291     2     0        1 
         127     0.267512     2     0        1 
         128     0.269449     2     0        1 
         129     0.270566     2     0        1 
         130     0.273221     2     0        1 
         131     0.278843     2     0        1 
         132     0.283633     2     0        1 
         133     0.290666     2     0        1 
         134     0.291918     2     0        1 
         135     0.290471     2     0        1 
         136     0.301343     2     0        1 
         137     0.312497     2     0        1 
         138     0.303058     2     0        1 
         139     0.293489     2     0        1 
         140      0.28266     2     0        1 
         141     0.274002     2     0        1 
         142     0.268453     2     0        1 
         143      0.26388     2     0        1 
         144     0.261195     2     0        1 
         145      0.26025     2     0        1 
         146     0.266051     2     0        1 
         147     0.306127     2     0        1 
         148     0.316524     2     0        1 
         149     0.319744     2     0        1 
         150     0.306978     2     0        1 
         151     0.296325     2     0        1 
         152     0.289573     2     0        1 
         153     0.280322     2     0        1 
         154     0.274707     2     0        1 
         155     0.278502     2     0        1 
         156      0.27403     2     0        1 
         157     0.270947     2     0        1 
         158     0.262773     2     0        1 
         159     0.258346     2     0        1 
         160     0.255702     2     0        1 
         161     0.253182     2     0        1 
         162     0.253503     2     0        1 
         163     0.250843     2     0        1 
         164     0.248794     2     0        1 
         165     0.248475     2     0        1 
         166     0.248038     2     0        1 
         167      0.24476     2     0        1 
         168     0.243255     2     0        1 
         169     0.244955     2     0        1 
         170      0.24283     2     0        1 
         171     0.249414     2     0        1 
         172     0.245332     2     0        1 
         173     0.242603     2     0        1 
         174     0.241509     2     0        1 
         175     0.240659     2     0        1 
         176     0.241575     2     0        1 
         177      0.23675     2     0        1 
         178     0.235144     2     0        1 
         179     0.237198     2     0        1 
         180     0.252717     2     0        1 
         181     0.257986     2     0        1 
         182     0.253872     2     0        1 
         183      0.25993     2     0        1 
         184      0.25439     2     0        1 
         185     0.253765     2     0        1 
         186     0.249585     2     0        1 
         187     0.245256     2     0        1 
         188     0.245772     2     0        1 
         189       0.2643     2     0        1 
         190     0.268336     2     0        1 
         191     0.272287     2     0        1 
         192     0.275007     2     0        1 
         193     0.273321     2     0        1 
         194     0.269652     2     0        1 
         195     0.273223     2     0        1 
         196     0.268622     2     0        1 
         197     0.264878     2     0        1 
         198      0.26453     2     0        1 
         199     0.260377     2     0        1 
         200     0.256477     2     0        1 
         201     0.255924     2     0        1 
         202     0.265194     2     0        1 
         203     0.271613     2     0        1 
         204     0.272229     2     0        1 
         205      0.26826     2     0        1 
         206     0.261456     2     0        1 
         207     0.258729     2     0        1 
         208     0.255989     2     0        1 
         209     0.254733     2     0        1 
         210     0.277355     2     0        1 
         211     0.312104     2     0        1 
         212     0.320451     2     0        1 
         213     0.304273     2     0        1 
         214     0.296767     2     0        1 
         215     0.339029     2     0        1 
         216     0.315763     2     0        1 
         217      0.31215     2     0        1 
         218     0.299726     2     0        1 
         219     0.292333     2     0        1 
         220     0.281838     2     0        1 
         221     0.274757     2     0        1 
         222     0.270007     2     0        1 
         223      0.28063     2     0        1 
         224     0.283948     2     0        1 
         225     0.287399     2     0        1 
         226     0.286203     2     0        1 
         227      0.28433     2     0        1 
         228     0.282939     2     0        1 
         229     0.276663     2     0        1 
         230     0.272562     2     0        1 
         231     0.268083     2     0        1 
         232        0.271     2     0        1 
         233     0.268384     2     0        1 
         234     0.267296     2     0        1 
         235      0.27095     2     0        1 
         236     0.273141     2     0        1 
         237     0.271001     2     0        1 
         238     0.269397     2     0        1 
         239     0.280106     2     0        1 
         240     0.276604     2     0        1 
         241     0.284456     2     0        1 
         242     0.293269     2     0        1 
         243     0.307807     2     0        1 
         244     0.315622     2     0        1 
         245     0.313818     2     0        1 
         246     0.300037     2     0        1 
         247     0.292339     2     0        1 
         248     0.284533     2     0        1 
         249      0.27706     2     0        1 
         250      0.27126     2     0        1 
         251     0.268361     2     0        1 
         252     0.280038     2     0        1 
         253     0.278862     2     0        1 
         254     0.283974     2     0        1 
         255     0.284985     2     0        1 
         256     0.307915     2     0        1 
         257     0.309794     2     0        1 
         258     0.298043     2     0        1 
         259     0.289177     2     0        1 
         260     0.284704     2     0        1 
         261     0.277851     2     0        1 
         262     0.274287     2     0        1 
         263     0.282964     2     0        1 
         264     0.291001     2     0        1 
         265     0.292044     2     0        1 
         266     0.290062     2     0        1 
         267     0.291577     2     0        1 
         268     0.288728     2     0        1 
         269     0.285349     2     0        1 
         270     0.281164     2     0        1 
         271     0.276786     2     0        1 
         272     0.269741     2     0        1 
         273     0.278869     2     0        1 
          91     -17.9886     0     2        1 
          92     -18.0492     0     2        1 
          93     -18.0754     0     2        1 
          94     -18.0859     0     2        1 
          95     -18.0879     0     2        1 
          96     -18.0867     0     2        1 
          97     -18.0953     0     2        1 
          98     -18.1562     0     2        1 
          99     -18.3879     0     2        1 
         100     -18.7506     0     2        1 
         101     -19.2445     0     2        1 
         102     -19.7085     0     2        1 
         103     -20.0981     0     2        1 
         104     -20.4136     0     2        1 
         105     -20.7027     0     2        1 
         106     -20.9451     0     2        1 
         107     -21.1712     0     2        1 
         108      -21.407     0     2        1 
         109     -21.5571     0     2        1 
         110     -21.7306     0     2        1 
         111     -21.8442     0     2        1 
         112     -21.9336     0     2        1 
         113     -22.0146     0     2        1 
         114     -22.0449     0     2        1 
         115     -22.0637     0     2        1 
         116     -22.0355     0     2        1 
         117     -22.0504     0     2        1 
         118     -22.0463     0     2        1 
         119     -22.0542     0     2        1 
         120     -22.0555     0     2        1 
         121     -22.0682     0     2        1 
         122     -22.0549     0     2        1 
         123     -22.0596     0     2        1 
         124     -22.0434     0     2        1 
         125     -22.0406     0     2        1 
         126     -22.0373     0     2        1 
         127     -22.0435     0     2        1 
         128      -22.058     0     2        1 
         129     -22.0632     0     2        1 
         130     -22.0443     0     2        1 
         131     -22.0484     0     2        1 
         132     -22.0697     0     2        1 
         133     -22.0484     0     2        1 
         134     -22.2339     0     2        1 
         135     -22.6574     0     2        1 
         136     -23.1329     0     2        1 
         137     -23.7951     0     2        1 
         138     -24.9225     0     2        1 
         139      -25.949     0     2        1 
         140     -26.7211     0     2        1 
         141     -27.2373     0     2        1 
         142     -27.5717     0     2        1 
         143     -27.8202     0     2        1 
         144     -27.9643     0     2        1 
         145     -28.0416     0     2        1 
         146     -28.0598     0     2        1 
         147     -28.0608     0     2        1 
         148     -28.4267     0     2        1 
         149     -30.0552     0     2        1 
         150     -32.0609     0     2        1 
         151     -33.5068     0     2        1 
         152     -34.4093     0     2        1 
         153     -34.9941     0     2        1 
         154     -35.3876     0     2        1 
         155     -35.7184     0     2        1 
         156     -35.8907     0     2        1 
         157     -36.0213     0     2        1 
         158     -36.1357     0     2        1 
         159     -36.2252     0     2        1 
         160     -36.2453     0     2        1 
         161     -36.2642     0     2        1 
         162     -36.2767     0     2        1 
         163     -36.2639     0     2        1 
         164     -36.2588     0     2        1 
         165     -36.2669     0     2        1 
         166      -36.259     0     2        1 
         167     -36.2662     0     2        1 
         168      -36.271     0     2        1 
         169     -36.2786     0     2        1 
         170     -36.2679     0     2        1 
         171     -36.2651     0     2        1 
         172     -36.2582     0     2        1 
         173     -36.2682     0     2        1 
         174     -36.2624     0     2        1 
         175     -36.2766     0     2        1 
         176     -36.2748     0     2        1 
         177     -36.2681     0     2        1 
         178     -36.2775     0     2        1 
         179     -36.2588     0     2        1 
         180     -36.2624     0     2        1 
         181     -36.2642     0     2        1 
         182     -36.2636     0     2        1 
         183     -36.2468     0     2        1 
         184     -36.2717     0     2        1 
         185      -36.289     0     2        1 
         186      -36.265     0     2        1 
         187     -36.2675     0     2        1 
         188     -36.2722     0     2        1 
         189     -36.2768     0     2        1 
         190     -36.2714     0     2        1 
         191     -36.2652     0     2        1 
         192      -36.272     0     2        1 
         193     -36.2429     0     2        1 
         194     -36.2766     0     2        1 
         195     -36.2749     0     2        1 
         196     -36.2899     0     2        1 
         197     -36.2645     0     2        1 
         198     -36.2872     0     2        1 
         199     -36.2724     0     2        1 
         200     -36.2698     0     2        1 
         201     -36.2741     0     2        1 
         202     -36.2496     0     2        1 
         203     -36.2571     0     2        1 
         204     -36.2538     0     2        1 
         205     -36.2758     0     2        1 
         206     -36.2557     0     2        1 
         207      -36.262     0     2        1 
         208     -36.2593     0     2        1 
         209     -36.2567     0     2        1 
         210     -36.2761     0     2        1 
         211     -36.2712     0     2        1 
         212     -36.8634     0     2        1 
         213     -38.7476     0     2        1 
         214     -40.0619     0     2        1 
         215     -41.1015     0     2        1 
         216     -44.7055     0     2        1 
         217     -46.8658     0     2        1 
         218     -48.3023     0     2        1 
         219     -49.2845     0     2        1 
         220      -49.942     0     2        1 
         221      -50.394     0     2        1 
         222       -50.66     0     2        1 
         223     -50.9087     0     2        1 
         224     -51.0566     0     2        1 
         225     -51.1941     0     2        1 
         226     -51.4252     0     2        1 
         227     -51.7278     0     2        1 
         228     -52.0492     0     2        1 
         229     -52.3413     0     2        1 
         230      -52.562     0     2        1 
         231     -52.7533     0     2        1 
         232     -52.8895     0     2        1 
         233     -52.9768     0     2        1 
         234     -53.0373     0     2        1 
         235     -53.0707     0     2        1 
         236     -53.0838     0     2        1 
         237      -53.072     0     2        1 
         238      -53.097     0     2        1 
         239     -53.1193     0     2        1 
         240     -53.1843     0     2        1 
         241     -53.2607     0     2        1 
         242     -53.3776     0     2        1 
         243     -53.6582     0     2        1 
         244      -54.565     0     2        1 
         245     -56.1355     0     2        1 
         246     -57.7072     0     2        1 
         247     -58.7736     0     2        1 
         248     -59.5192     0     2        1 
         249     -59.9761     0     2        1 
         250     -60.2938     0     2        1 
         251     -60.4959     0     2        1 
         252     -60.6506     0     2        1 
         253     -60.7649     0     2        1 
         254     -60.8476     0     2        1 
         255     -60.9849     0     2        1 
         256     -61.2357     0     2        1 
         257     -61.8364     0     2        1 
         258     -63.1024     0     2        1 
         259      -64.054     0     2        1 
         260     -64.7248     0     2        1 
         261     -65.1734     0     2        1 
         262     -65.4958     0     2        1 
         263     -65.7409     0     2        1 
         264     -65.9176     0     2        1 
         265     -66.1458     0     2        1 
         266      -66.559     0     2        1 
         267     -67.0461     0     2        1 
         268     -67.5039     0     2        1 
         269     -67.9481     0     2        1 
         270     -68.3164     0     2        1 
         271     -68.6058     0     2        1 
         272     -68.8618     0     2        1 
         273     -69.0474     0     2        1 
end*** END OF INPUT FILE 'FIT.IN' **********************************
