Pcp_File_Version=4
    3
    1  0.000000e+000  1.000000e+000  1.000000e+000
    2 -1.500000e+001  1.000000e+000  1.000000e+000
    3 -1.500000e+002  1.000000e+000  1.000000e+000
  151    0    0    1 x         h      Mat  Lay      Beta           Axz            Bxz            Dxz          Temp          Conc 
    1 -0.000000e+000 -1.000000e+002    1    1  1.000000e+000  1.000000e+000  1.000000e+000  1.000000e+000              
    2 -1.000000e+000 -9.933334e+001    1    1  9.500000e-001  1.000000e+000  1.000000e+000  1.000000e+000              
    3 -2.000000e+000 -9.866666e+001    1    1  9.000000e-001  1.000000e+000  1.000000e+000  1.000000e+000              
    4 -3.000000e+000 -9.800000e+001    1    1  8.500000e-001  1.000000e+000  1.000000e+000  1.000000e+000              
    5 -4.000000e+000 -9.733334e+001    1    1  8.000000e-001  1.000000e+000  1.000000e+000  1.000000e+000              
    6 -5.000000e+000 -9.666666e+001    1    1  7.500000e-001  1.000000e+000  1.000000e+000  1.000000e+000              
    7 -6.000000e+000 -9.600000e+001    1    1  7.000000e-001  1.000000e+000  1.000000e+000  1.000000e+000              
    8 -7.000000e+000 -9.533334e+001    1    1  6.500000e-001  1.000000e+000  1.000000e+000  1.000000e+000              
    9 -8.000000e+000 -9.466666e+001    1    1  6.000000e-001  1.000000e+000  1.000000e+000  1.000000e+000              
   10 -9.000000e+000 -9.400000e+001    1    1  5.500000e-001  1.000000e+000  1.000000e+000  1.000000e+000              
   11 -1.000000e+001 -9.333334e+001    1    1  5.000000e-001  1.000000e+000  1.000000e+000  1.000000e+000              
   12 -1.100000e+001 -9.266666e+001    1    1  4.500000e-001  1.000000e+000  1.000000e+000  1.000000e+000              
   13 -1.200000e+001 -9.200000e+001    1    1  4.000000e-001  1.000000e+000  1.000000e+000  1.000000e+000              
   14 -1.300000e+001 -9.133334e+001    1    1  3.500000e-001  1.000000e+000  1.000000e+000  1.000000e+000              
   15 -1.400000e+001 -9.066666e+001    1    1  3.000000e-001  1.000000e+000  1.000000e+000  1.000000e+000              
   16 -1.500000e+001 -9.000000e+001    1    1  2.500000e-001  1.000000e+000  1.000000e+000  1.000000e+000              
   17 -1.600000e+001 -8.933334e+001    1    1  2.000000e-001  1.000000e+000  1.000000e+000  1.000000e+000              
   18 -1.700000e+001 -8.866666e+001    1    1  1.500000e-001  1.000000e+000  1.000000e+000  1.000000e+000              
   19 -1.800000e+001 -8.800000e+001    1    1  1.000000e-001  1.000000e+000  1.000000e+000  1.000000e+000              
   20 -1.900000e+001 -8.733334e+001    1    1  5.000000e-002  1.000000e+000  1.000000e+000  1.000000e+000              
   21 -2.000000e+001 -8.666666e+001    1    1  0.000000e+000  1.000000e+000  1.000000e+000  1.000000e+000              
   22 -2.100000e+001 -8.600000e+001    1    1  0.000000e+000  1.000000e+000  1.000000e+000  1.000000e+000              
   23 -2.200000e+001 -8.533334e+001    1    1  0.000000e+000  1.000000e+000  1.000000e+000  1.000000e+000              
   24 -2.300000e+001 -8.466666e+001    1    1  0.000000e+000  1.000000e+000  1.000000e+000  1.000000e+000              
   25 -2.400000e+001 -8.400000e+001    1    1  0.000000e+000  1.000000e+000  1.000000e+000  1.000000e+000              
   26 -2.500000e+001 -8.333334e+001    1    1  0.000000e+000  1.000000e+000  1.000000e+000  1.000000e+000              
   27 -2.600000e+001 -8.266666e+001    1    1  0.000000e+000  1.000000e+000  1.000000e+000  1.000000e+000              
   28 -2.700000e+001 -8.200000e+001    1    1  0.000000e+000  1.000000e+000  1.000000e+000  1.000000e+000              
   29 -2.800000e+001 -8.133334e+001    1    1  0.000000e+000  1.000000e+000  1.000000e+000  1.000000e+000              
   30 -2.900000e+001 -8.066666e+001    1    1  0.000000e+000  1.000000e+000  1.000000e+000  1.000000e+000              
   31 -3.000000e+001 -8.000000e+001    1    1  0.000000e+000  1.000000e+000  1.000000e+000  1.000000e+000              
   32 -3.100000e+001 -7.933334e+001    1    1  0.000000e+000  1.000000e+000  1.000000e+000  1.000000e+000              
   33 -3.200000e+001 -7.866666e+001    1    1  0.000000e+000  1.000000e+000  1.000000e+000  1.000000e+000              
   34 -3.300000e+001 -7.800000e+001    1    1  0.000000e+000  1.000000e+000  1.000000e+000  1.000000e+000              
   35 -3.400000e+001 -7.733334e+001    1    1  0.000000e+000  1.000000e+000  1.000000e+000  1.000000e+000              
   36 -3.500000e+001 -7.666666e+001    1    1  0.000000e+000  1.000000e+000  1.000000e+000  1.000000e+000              
   37 -3.600000e+001 -7.600000e+001    1    1  0.000000e+000  1.000000e+000  1.000000e+000  1.000000e+000              
   38 -3.700000e+001 -7.533334e+001    1    1  0.000000e+000  1.000000e+000  1.000000e+000  1.000000e+000              
   39 -3.800000e+001 -7.466666e+001    1    1  0.000000e+000  1.000000e+000  1.000000e+000  1.000000e+000              
   40 -3.900000e+001 -7.400000e+001    1    1  0.000000e+000  1.000000e+000  1.000000e+000  1.000000e+000              
   41 -4.000000e+001 -7.333334e+001    1    1  0.000000e+000  1.000000e+000  1.000000e+000  1.000000e+000              
   42 -4.100000e+001 -7.266666e+001    1    1  0.000000e+000  1.000000e+000  1.000000e+000  1.000000e+000              
   43 -4.200000e+001 -7.200000e+001    1    1  0.000000e+000  1.000000e+000  1.000000e+000  1.000000e+000              
   44 -4.300000e+001 -7.133334e+001    1    1  0.000000e+000  1.000000e+000  1.000000e+000  1.000000e+000              
   45 -4.400000e+001 -7.066666e+001    1    1  0.000000e+000  1.000000e+000  1.000000e+000  1.000000e+000              
   46 -4.500000e+001 -7.000000e+001    1    1  0.000000e+000  1.000000e+000  1.000000e+000  1.000000e+000              
   47 -4.600000e+001 -6.933334e+001    1    1  0.000000e+000  1.000000e+000  1.000000e+000  1.000000e+000              
   48 -4.700000e+001 -6.866666e+001    1    1  0.000000e+000  1.000000e+000  1.000000e+000  1.000000e+000              
   49 -4.800000e+001 -6.800000e+001    1    1  0.000000e+000  1.000000e+000  1.000000e+000  1.000000e+000              
   50 -4.900000e+001 -6.733334e+001    1    1  0.000000e+000  1.000000e+000  1.000000e+000  1.000000e+000              
   51 -5.000000e+001 -6.666666e+001    1    1  0.000000e+000  1.000000e+000  1.000000e+000  1.000000e+000              
   52 -5.100000e+001 -6.600000e+001    1    1  0.000000e+000  1.000000e+000  1.000000e+000  1.000000e+000              
   53 -5.200000e+001 -6.533334e+001    1    1  0.000000e+000  1.000000e+000  1.000000e+000  1.000000e+000              
   54 -5.300000e+001 -6.466666e+001    1    1  0.000000e+000  1.000000e+000  1.000000e+000  1.000000e+000              
   55 -5.400000e+001 -6.400000e+001    1    1  0.000000e+000  1.000000e+000  1.000000e+000  1.000000e+000              
   56 -5.500000e+001 -6.333333e+001    1    1  0.000000e+000  1.000000e+000  1.000000e+000  1.000000e+000              
   57 -5.600000e+001 -6.266667e+001    1    1  0.000000e+000  1.000000e+000  1.000000e+000  1.000000e+000              
   58 -5.700000e+001 -6.200000e+001    1    1  0.000000e+000  1.000000e+000  1.000000e+000  1.000000e+000              
   59 -5.800000e+001 -6.133333e+001    1    1  0.000000e+000  1.000000e+000  1.000000e+000  1.000000e+000              
   60 -5.900000e+001 -6.066667e+001    1    1  0.000000e+000  1.000000e+000  1.000000e+000  1.000000e+000              
   61 -6.000000e+001 -6.000000e+001    1    1  0.000000e+000  1.000000e+000  1.000000e+000  1.000000e+000              
   62 -6.100000e+001 -5.933333e+001    1    1  0.000000e+000  1.000000e+000  1.000000e+000  1.000000e+000              
   63 -6.200000e+001 -5.866667e+001    1    1  0.000000e+000  1.000000e+000  1.000000e+000  1.000000e+000              
   64 -6.300000e+001 -5.800000e+001    1    1  0.000000e+000  1.000000e+000  1.000000e+000  1.000000e+000              
   65 -6.400000e+001 -5.733333e+001    1    1  0.000000e+000  1.000000e+000  1.000000e+000  1.000000e+000              
   66 -6.500000e+001 -5.666667e+001    1    1  0.000000e+000  1.000000e+000  1.000000e+000  1.000000e+000              
   67 -6.600000e+001 -5.600000e+001    1    1  0.000000e+000  1.000000e+000  1.000000e+000  1.000000e+000              
   68 -6.700000e+001 -5.533333e+001    1    1  0.000000e+000  1.000000e+000  1.000000e+000  1.000000e+000              
   69 -6.800000e+001 -5.466667e+001    1    1  0.000000e+000  1.000000e+000  1.000000e+000  1.000000e+000              
   70 -6.900000e+001 -5.400000e+001    1    1  0.000000e+000  1.000000e+000  1.000000e+000  1.000000e+000              
   71 -7.000000e+001 -5.333333e+001    1    1  0.000000e+000  1.000000e+000  1.000000e+000  1.000000e+000              
   72 -7.100000e+001 -5.266667e+001    1    1  0.000000e+000  1.000000e+000  1.000000e+000  1.000000e+000              
   73 -7.200000e+001 -5.200000e+001    1    1  0.000000e+000  1.000000e+000  1.000000e+000  1.000000e+000              
   74 -7.300000e+001 -5.133333e+001    1    1  0.000000e+000  1.000000e+000  1.000000e+000  1.000000e+000              
   75 -7.400000e+001 -5.066667e+001    1    1  0.000000e+000  1.000000e+000  1.000000e+000  1.000000e+000              
   76 -7.500000e+001 -5.000000e+001    1    1  0.000000e+000  1.000000e+000  1.000000e+000  1.000000e+000              
   77 -7.600000e+001 -4.933333e+001    1    1  0.000000e+000  1.000000e+000  1.000000e+000  1.000000e+000              
   78 -7.700000e+001 -4.866667e+001    1    1  0.000000e+000  1.000000e+000  1.000000e+000  1.000000e+000              
   79 -7.800000e+001 -4.800000e+001    1    1  0.000000e+000  1.000000e+000  1.000000e+000  1.000000e+000              
   80 -7.900000e+001 -4.733333e+001    1    1  0.000000e+000  1.000000e+000  1.000000e+000  1.000000e+000              
   81 -8.000000e+001 -4.666667e+001    1    1  0.000000e+000  1.000000e+000  1.000000e+000  1.000000e+000              
   82 -8.100000e+001 -4.600000e+001    1    1  0.000000e+000  1.000000e+000  1.000000e+000  1.000000e+000              
   83 -8.200000e+001 -4.533333e+001    1    1  0.000000e+000  1.000000e+000  1.000000e+000  1.000000e+000              
   84 -8.300000e+001 -4.466667e+001    1    1  0.000000e+000  1.000000e+000  1.000000e+000  1.000000e+000              
   85 -8.400000e+001 -4.400000e+001    1    1  0.000000e+000  1.000000e+000  1.000000e+000  1.000000e+000              
   86 -8.500000e+001 -4.333333e+001    1    1  0.000000e+000  1.000000e+000  1.000000e+000  1.000000e+000              
   87 -8.600000e+001 -4.266667e+001    1    1  0.000000e+000  1.000000e+000  1.000000e+000  1.000000e+000              
   88 -8.700000e+001 -4.200000e+001    1    1  0.000000e+000  1.000000e+000  1.000000e+000  1.000000e+000              
   89 -8.800000e+001 -4.133333e+001    1    1  0.000000e+000  1.000000e+000  1.000000e+000  1.000000e+000              
   90 -8.900000e+001 -4.066667e+001    1    1  0.000000e+000  1.000000e+000  1.000000e+000  1.000000e+000              
   91 -9.000000e+001 -4.000000e+001    1    1  0.000000e+000  1.000000e+000  1.000000e+000  1.000000e+000              
   92 -9.100000e+001 -3.933333e+001    1    1  0.000000e+000  1.000000e+000  1.000000e+000  1.000000e+000              
   93 -9.200000e+001 -3.866667e+001    1    1  0.000000e+000  1.000000e+000  1.000000e+000  1.000000e+000              
   94 -9.300000e+001 -3.800000e+001    1    1  0.000000e+000  1.000000e+000  1.000000e+000  1.000000e+000              
   95 -9.400000e+001 -3.733333e+001    1    1  0.000000e+000  1.000000e+000  1.000000e+000  1.000000e+000              
   96 -9.500000e+001 -3.666667e+001    1    1  0.000000e+000  1.000000e+000  1.000000e+000  1.000000e+000              
   97 -9.600000e+001 -3.600000e+001    1    1  0.000000e+000  1.000000e+000  1.000000e+000  1.000000e+000              
   98 -9.700000e+001 -3.533333e+001    1    1  0.000000e+000  1.000000e+000  1.000000e+000  1.000000e+000              
   99 -9.800000e+001 -3.466667e+001    1    1  0.000000e+000  1.000000e+000  1.000000e+000  1.000000e+000              
  100 -9.900000e+001 -3.400000e+001    1    1  0.000000e+000  1.000000e+000  1.000000e+000  1.000000e+000              
  101 -1.000000e+002 -3.333333e+001    1    1  0.000000e+000  1.000000e+000  1.000000e+000  1.000000e+000              
  102 -1.010000e+002 -3.266667e+001    1    1  0.000000e+000  1.000000e+000  1.000000e+000  1.000000e+000              
  103 -1.020000e+002 -3.200000e+001    1    1  0.000000e+000  1.000000e+000  1.000000e+000  1.000000e+000              
  104 -1.030000e+002 -3.133333e+001    1    1  0.000000e+000  1.000000e+000  1.000000e+000  1.000000e+000              
  105 -1.040000e+002 -3.066667e+001    1    1  0.000000e+000  1.000000e+000  1.000000e+000  1.000000e+000              
  106 -1.050000e+002 -3.000000e+001    1    1  0.000000e+000  1.000000e+000  1.000000e+000  1.000000e+000              
  107 -1.060000e+002 -2.933333e+001    1    1  0.000000e+000  1.000000e+000  1.000000e+000  1.000000e+000              
  108 -1.070000e+002 -2.866667e+001    1    1  0.000000e+000  1.000000e+000  1.000000e+000  1.000000e+000              
  109 -1.080000e+002 -2.800000e+001    1    1  0.000000e+000  1.000000e+000  1.000000e+000  1.000000e+000              
  110 -1.090000e+002 -2.733333e+001    1    1  0.000000e+000  1.000000e+000  1.000000e+000  1.000000e+000              
  111 -1.100000e+002 -2.666667e+001    1    1  0.000000e+000  1.000000e+000  1.000000e+000  1.000000e+000              
  112 -1.110000e+002 -2.600000e+001    1    1  0.000000e+000  1.000000e+000  1.000000e+000  1.000000e+000              
  113 -1.120000e+002 -2.533333e+001    1    1  0.000000e+000  1.000000e+000  1.000000e+000  1.000000e+000              
  114 -1.130000e+002 -2.466667e+001    1    1  0.000000e+000  1.000000e+000  1.000000e+000  1.000000e+000              
  115 -1.140000e+002 -2.400000e+001    1    1  0.000000e+000  1.000000e+000  1.000000e+000  1.000000e+000              
  116 -1.150000e+002 -2.333333e+001    1    1  0.000000e+000  1.000000e+000  1.000000e+000  1.000000e+000              
  117 -1.160000e+002 -2.266667e+001    1    1  0.000000e+000  1.000000e+000  1.000000e+000  1.000000e+000              
  118 -1.170000e+002 -2.200000e+001    1    1  0.000000e+000  1.000000e+000  1.000000e+000  1.000000e+000              
  119 -1.180000e+002 -2.133333e+001    1    1  0.000000e+000  1.000000e+000  1.000000e+000  1.000000e+000              
  120 -1.190000e+002 -2.066667e+001    1    1  0.000000e+000  1.000000e+000  1.000000e+000  1.000000e+000              
  121 -1.200000e+002 -2.000000e+001    1    1  0.000000e+000  1.000000e+000  1.000000e+000  1.000000e+000              
  122 -1.210000e+002 -1.933333e+001    1    1  0.000000e+000  1.000000e+000  1.000000e+000  1.000000e+000              
  123 -1.220000e+002 -1.866667e+001    1    1  0.000000e+000  1.000000e+000  1.000000e+000  1.000000e+000              
  124 -1.230000e+002 -1.800000e+001    1    1  0.000000e+000  1.000000e+000  1.000000e+000  1.000000e+000              
  125 -1.240000e+002 -1.733333e+001    1    1  0.000000e+000  1.000000e+000  1.000000e+000  1.000000e+000              
  126 -1.250000e+002 -1.666667e+001    1    1  0.000000e+000  1.000000e+000  1.000000e+000  1.000000e+000              
  127 -1.260000e+002 -1.600000e+001    1    1  0.000000e+000  1.000000e+000  1.000000e+000  1.000000e+000              
  128 -1.270000e+002 -1.533333e+001    1    1  0.000000e+000  1.000000e+000  1.000000e+000  1.000000e+000              
  129 -1.280000e+002 -1.466667e+001    1    1  0.000000e+000  1.000000e+000  1.000000e+000  1.000000e+000              
  130 -1.290000e+002 -1.400000e+001    1    1  0.000000e+000  1.000000e+000  1.000000e+000  1.000000e+000              
  131 -1.300000e+002 -1.333333e+001    1    1  0.000000e+000  1.000000e+000  1.000000e+000  1.000000e+000              
  132 -1.310000e+002 -1.266667e+001    1    1  0.000000e+000  1.000000e+000  1.000000e+000  1.000000e+000              
  133 -1.320000e+002 -1.200000e+001    1    1  0.000000e+000  1.000000e+000  1.000000e+000  1.000000e+000              
  134 -1.330000e+002 -1.133333e+001    1    1  0.000000e+000  1.000000e+000  1.000000e+000  1.000000e+000              
  135 -1.340000e+002 -1.066667e+001    1    1  0.000000e+000  1.000000e+000  1.000000e+000  1.000000e+000              
  136 -1.350000e+002 -1.000000e+001    1    1  0.000000e+000  1.000000e+000  1.000000e+000  1.000000e+000              
  137 -1.360000e+002 -9.333333e+000    1    1  0.000000e+000  1.000000e+000  1.000000e+000  1.000000e+000              
  138 -1.370000e+002 -8.666667e+000    1    1  0.000000e+000  1.000000e+000  1.000000e+000  1.000000e+000              
  139 -1.380000e+002 -8.000000e+000    1    1  0.000000e+000  1.000000e+000  1.000000e+000  1.000000e+000              
  140 -1.390000e+002 -7.333333e+000    1    1  0.000000e+000  1.000000e+000  1.000000e+000  1.000000e+000              
  141 -1.400000e+002 -6.666667e+000    1    1  0.000000e+000  1.000000e+000  1.000000e+000  1.000000e+000              
  142 -1.410000e+002 -6.000000e+000    1    1  0.000000e+000  1.000000e+000  1.000000e+000  1.000000e+000              
  143 -1.420000e+002 -5.333333e+000    1    1  0.000000e+000  1.000000e+000  1.000000e+000  1.000000e+000              
  144 -1.430000e+002 -4.666667e+000    1    1  0.000000e+000  1.000000e+000  1.000000e+000  1.000000e+000              
  145 -1.440000e+002 -4.000000e+000    1    1  0.000000e+000  1.000000e+000  1.000000e+000  1.000000e+000              
  146 -1.450000e+002 -3.333333e+000    1    1  0.000000e+000  1.000000e+000  1.000000e+000  1.000000e+000              
  147 -1.460000e+002 -2.666667e+000    1    1  0.000000e+000  1.000000e+000  1.000000e+000  1.000000e+000              
  148 -1.470000e+002 -2.000000e+000    1    1  0.000000e+000  1.000000e+000  1.000000e+000  1.000000e+000              
  149 -1.480000e+002 -1.333333e+000    1    1  0.000000e+000  1.000000e+000  1.000000e+000  1.000000e+000              
  150 -1.490000e+002 -6.666667e-001    1    1  0.000000e+000  1.000000e+000  1.000000e+000  1.000000e+000              
  151 -1.500000e+002  0.000000e+000    1    1  0.000000e+000  1.000000e+000  1.000000e+000  1.000000e+000              
    4
   11   31   61   91
